test/results/nordic_fault_multiterminal/multiterminal7/res_branch_2.csv
branch,from_bus,to_bus,X,B,G,Bfr,Bto,p_from,p_to,q_from,q_to,p_loss,q_loss,s_from,s_to,rate_a,ang_deg,angmin,angmax
4,24042,24043,0.015,-65.50218340611355,8.733624454148472,0.248815,0.248815,7.3635962020562955,-7.269229011129805,-1.6495109243890067,1.7605985078995308,0.09436719092649071,0.11108758351052406,7.5460874177693285,7.479398205889913,14.0,5.415798331179156,-40.0,40.0
2,24021,24042,0.1,-9.900990099009901,0.99009900990099,1.5004299999999997,1.5004299999999997,7.919150682576953,-7.3635962020562955,0.30795462774743854,1.6495109243890067,0.5555544805206578,1.9574655521364452,7.925136187227958,7.5460874177693285,14.0,40.00000055395463,-40.0,40.0
3,24021,24032,0.04,-24.752475247524753,2.4752475247524752,0.60067,0.60067,7.298248668144674,-7.12208342203531,-0.5669533904044016,0.8749867152321888,0.17616524610936413,0.3080333248277872,7.320237002240198,7.175630566177652,14.0,13.93000379185921,-40.0,40.0
1,24011,24021,0.06,-16.501650165016503,1.6501650165016504,0.899745,0.899745,13.301677372710285,-12.367399375491802,2.299244615039209,4.8661524222932995,0.9342779972184836,7.165397037332509,13.498931317976975,13.290297465064729,14.0,40.000000353594416,-40.0,40.0
